<?xml version="1.0" encoding="UTF-8"?>

<!-- generated on 2022-10-09 12:10:41 by Eclipse SUMO netconvert Version 1.14.1
<configuration xmlns:xsi="http://www.w3.org/2001/XMLSchema-instance" xsi:noNamespaceSchemaLocation="http://sumo.dlr.de/xsd/netconvertConfiguration.xsd">

    <input>
        <type-files value="C:\Users\willi\Downloads\sumo-1.14.1\tools\..\data\typemap\osmNetconvert.typ.xml"/>
        <osm-files value="osm_bbox.osm.xml.gz"/>
    </input>

    <output>
        <output-file value="osm.net.xml"/>
        <output.street-names value="true"/>
        <output.original-names value="true"/>
    </output>

    <projection>
        <proj.utm value="true"/>
    </projection>

    <processing>
        <geometry.remove value="true"/>
        <roundabouts.guess value="true"/>
    </processing>

    <tls_building>
        <tls.discard-simple value="true"/>
        <tls.join value="true"/>
        <tls.guess-signals value="true"/>
        <tls.default-type value="actuated"/>
    </tls_building>

    <ramp_guessing>
        <ramps.guess value="true"/>
    </ramp_guessing>

    <edge_removal>
        <keep-edges.by-vclass value="passenger"/>
    </edge_removal>

    <junctions>
        <junctions.join value="true"/>
        <junctions.corner-detail value="5"/>
    </junctions>

    <report>
        <verbose value="true"/>
    </report>

</configuration>
-->

<net version="1.9" junctionCornerDetail="5" limitTurnSpeed="5.50" xmlns:xsi="http://www.w3.org/2001/XMLSchema-instance" xsi:noNamespaceSchemaLocation="http://sumo.dlr.de/xsd/net_file.xsd">

    <location netOffset="-501406.21,-4399075.93" convBoundary="0.00,0.00,872.45,510.70" origBoundary="-104.987256,39.731952,-104.973405,39.748008" projParameter="+proj=utm +zone=13 +ellps=WGS84 +datum=WGS84 +units=m +no_defs"/>

    <type id="highway.bridleway" priority="1" numLanes="1" speed="2.78" allow="pedestrian" oneway="1" width="2.00"/>
    <type id="highway.bus_guideway" priority="1" numLanes="1" speed="27.78" allow="bus" oneway="1"/>
    <type id="highway.cycleway" priority="1" numLanes="1" speed="5.56" allow="bicycle" oneway="0" width="1.00"/>
    <type id="highway.footway" priority="1" numLanes="1" speed="2.78" allow="pedestrian" oneway="1" width="2.00"/>
    <type id="highway.ford" priority="1" numLanes="1" speed="2.78" allow="army" oneway="0"/>
    <type id="highway.living_street" priority="2" numLanes="1" speed="2.78" disallow="tram rail_urban rail rail_electric rail_fast ship" oneway="0"/>
    <type id="highway.motorway" priority="14" numLanes="2" speed="39.44" allow="private emergency authority army vip passenger hov taxi bus coach delivery truck trailer motorcycle evehicle custom1 custom2" oneway="1"/>
    <type id="highway.motorway_link" priority="9" numLanes="1" speed="22.22" allow="private emergency authority army vip passenger hov taxi bus coach delivery truck trailer motorcycle evehicle custom1 custom2" oneway="1"/>
    <type id="highway.path" priority="1" numLanes="1" speed="5.56" allow="pedestrian bicycle" oneway="0" width="2.00"/>
    <type id="highway.pedestrian" priority="1" numLanes="1" speed="2.78" allow="pedestrian" oneway="1" width="2.00"/>
    <type id="highway.primary" priority="12" numLanes="2" speed="27.78" disallow="tram rail_urban rail rail_electric rail_fast ship" oneway="0"/>
    <type id="highway.primary_link" priority="7" numLanes="1" speed="22.22" disallow="tram rail_urban rail rail_electric rail_fast ship" oneway="0"/>
    <type id="highway.raceway" priority="15" numLanes="2" speed="83.33" allow="vip" oneway="0"/>
    <type id="highway.residential" priority="3" numLanes="1" speed="13.89" disallow="tram rail_urban rail rail_electric rail_fast ship" oneway="0"/>
    <type id="highway.secondary" priority="11" numLanes="1" speed="27.78" disallow="tram rail_urban rail rail_electric rail_fast ship" oneway="0"/>
    <type id="highway.secondary_link" priority="6" numLanes="1" speed="22.22" disallow="tram rail_urban rail rail_electric rail_fast ship" oneway="0"/>
    <type id="highway.service" priority="1" numLanes="1" speed="5.56" allow="pedestrian delivery bicycle" oneway="0"/>
    <type id="highway.stairs" priority="1" numLanes="1" speed="1.39" allow="pedestrian" oneway="1" width="2.00"/>
    <type id="highway.step" priority="1" numLanes="1" speed="1.39" allow="pedestrian" oneway="1" width="2.00"/>
    <type id="highway.steps" priority="1" numLanes="1" speed="1.39" allow="pedestrian" oneway="1" width="2.00"/>
    <type id="highway.tertiary" priority="10" numLanes="1" speed="22.22" disallow="tram rail_urban rail rail_electric rail_fast ship" oneway="0"/>
    <type id="highway.tertiary_link" priority="5" numLanes="1" speed="22.22" disallow="tram rail_urban rail rail_electric rail_fast ship" oneway="0"/>
    <type id="highway.track" priority="1" numLanes="1" speed="5.56" allow="pedestrian motorcycle moped bicycle" oneway="0"/>
    <type id="highway.trunk" priority="13" numLanes="2" speed="27.78" disallow="pedestrian bicycle tram rail_urban rail rail_electric rail_fast ship" oneway="0"/>
    <type id="highway.trunk_link" priority="8" numLanes="1" speed="22.22" disallow="pedestrian bicycle tram rail_urban rail rail_electric rail_fast ship" oneway="0"/>
    <type id="highway.unclassified" priority="4" numLanes="1" speed="13.89" disallow="tram rail_urban rail rail_electric rail_fast ship" oneway="0"/>
    <type id="highway.unsurfaced" priority="1" numLanes="1" speed="8.33" disallow="tram rail_urban rail rail_electric rail_fast ship" oneway="0"/>
    <type id="railway.highspeed" priority="21" numLanes="1" speed="69.44" allow="rail_fast" oneway="1"/>
    <type id="railway.light_rail" priority="19" numLanes="1" speed="27.78" allow="rail_urban" oneway="1"/>
    <type id="railway.preserved" priority="16" numLanes="1" speed="27.78" allow="rail" oneway="1"/>
    <type id="railway.rail" priority="20" numLanes="1" speed="44.44" allow="rail" oneway="1"/>
    <type id="railway.subway" priority="18" numLanes="1" speed="27.78" allow="rail_urban" oneway="1"/>
    <type id="railway.tram" priority="17" numLanes="1" speed="13.89" allow="tram" oneway="1"/>

    <edge id=":176071282_0" function="internal">
        <lane id=":176071282_0_0" index="0" disallow="tram rail_urban rail rail_electric rail_fast ship" speed="3.65" length="4.67" shape="211.04,9.71 211.84,8.51 212.64,8.11 213.44,8.51 214.24,9.71"/>
    </edge>
    <edge id=":176080655_0" function="internal">
        <lane id=":176080655_0_0" index="0" disallow="tram rail_urban rail rail_electric rail_fast ship" speed="6.50" length="9.03" shape="109.25,177.89 109.60,180.34 110.65,182.09 112.40,183.14 114.85,183.48"/>
    </edge>
    <edge id=":176080655_1" function="internal">
        <lane id=":176080655_1_0" index="0" disallow="tram rail_urban rail rail_electric rail_fast ship" speed="27.78" length="17.63" shape="109.25,177.89 109.23,195.51"/>
        <lane id=":176080655_1_1" index="1" disallow="tram rail_urban rail rail_electric rail_fast ship" speed="27.78" length="17.63" shape="106.05,177.88 106.03,195.51"/>
    </edge>
    <edge id=":176080655_3" function="internal">
        <lane id=":176080655_3_0" index="0" disallow="tram rail_urban rail rail_electric rail_fast ship" speed="13.41" length="14.44" shape="100.41,183.52 114.85,183.48"/>
        <lane id=":176080655_3_1" index="1" disallow="tram rail_urban rail rail_electric rail_fast ship" speed="13.41" length="14.44" shape="100.42,186.72 114.86,186.68"/>
        <lane id=":176080655_3_2" index="2" disallow="tram rail_urban rail rail_electric rail_fast ship" speed="13.41" length="14.44" shape="100.43,189.92 114.87,189.88"/>
    </edge>
    <edge id=":176080655_6" function="internal">
        <lane id=":176080655_6_0" index="0" disallow="tram rail_urban rail rail_electric rail_fast ship" speed="6.50" length="9.03" shape="100.43,189.92 102.88,190.26 104.63,191.31 105.68,193.06 106.03,195.51"/>
    </edge>
    <edge id=":176080657_0" function="internal">
        <lane id=":176080657_0_0" index="0" disallow="tram rail_urban rail rail_electric rail_fast ship" speed="13.89" length="17.61" shape="211.36,195.22 211.33,177.61"/>
    </edge>
    <edge id=":176080657_1" function="internal">
        <lane id=":176080657_1_0" index="0" disallow="tram rail_urban rail rail_electric rail_fast ship" speed="7.33" length="11.73" shape="211.36,195.22 211.91,192.76 213.56,191.01 216.31,189.95 220.16,189.59"/>
    </edge>
    <edge id=":176080657_2" function="internal">
        <lane id=":176080657_2_0" index="0" disallow="tram rail_urban rail rail_electric rail_fast ship" speed="3.65" length="4.67" shape="211.36,195.22 212.16,194.02 212.96,193.61 213.76,194.01 214.56,195.21"/>
    </edge>
    <edge id=":176080657_3" function="internal">
        <lane id=":176080657_3_0" index="0" disallow="tram rail_urban rail rail_electric rail_fast ship" speed="6.51" length="9.03" shape="214.53,177.60 214.89,180.05 215.94,181.80 217.69,182.85 220.14,183.19"/>
    </edge>
    <edge id=":176080657_4" function="internal">
        <lane id=":176080657_4_0" index="0" disallow="tram rail_urban rail rail_electric rail_fast ship" speed="13.89" length="17.61" shape="214.53,177.60 214.56,195.21"/>
    </edge>
    <edge id=":176080657_5" function="internal">
        <lane id=":176080657_5_0" index="0" disallow="tram rail_urban rail rail_electric rail_fast ship" speed="3.65" length="4.67" shape="214.53,177.60 213.73,178.81 212.94,179.21 212.13,178.81 211.33,177.61"/>
    </edge>
    <edge id=":176080657_6" function="internal">
        <lane id=":176080657_6_0" index="0" disallow="tram rail_urban rail rail_electric rail_fast ship" speed="6.52" length="9.05" shape="205.73,183.23 208.18,182.87 209.94,181.82 210.99,180.06 211.33,177.61"/>
    </edge>
    <edge id=":176080657_7" function="internal">
        <lane id=":176080657_7_0" index="0" disallow="tram rail_urban rail rail_electric rail_fast ship" speed="13.41" length="14.41" shape="205.73,183.23 220.14,183.19"/>
        <lane id=":176080657_7_1" index="1" disallow="tram rail_urban rail rail_electric rail_fast ship" speed="13.41" length="14.41" shape="205.74,186.43 220.15,186.39"/>
        <lane id=":176080657_7_2" index="2" disallow="tram rail_urban rail rail_electric rail_fast ship" speed="13.41" length="14.41" shape="205.75,189.63 220.16,189.59"/>
    </edge>
    <edge id=":176080657_10" function="internal">
        <lane id=":176080657_10_0" index="0" disallow="tram rail_urban rail rail_electric rail_fast ship" speed="7.32" length="11.73" shape="205.75,189.63 209.60,189.97 212.35,191.01 214.01,192.76 214.56,195.21"/>
    </edge>
    <edge id=":176086237_0" function="internal">
        <lane id=":176086237_0_0" index="0" disallow="tram rail_urban rail rail_electric rail_fast ship" speed="3.65" length="4.67" shape="215.10,510.70 214.30,511.90 213.50,512.30 212.70,511.90 211.90,510.70"/>
    </edge>

    <edge id="-596723424#3" from="176080657" to="176086237" name="Pennsylvania Street" priority="3" type="highway.residential" shape="212.95,186.41 212.97,198.16 212.98,201.00 213.01,225.73 213.03,235.32 213.17,316.61 213.23,350.79 213.24,353.74 213.25,364.44 213.27,375.10 213.27,377.23 213.37,429.85 213.48,497.70 213.49,500.32 213.50,510.70">
        <lane id="-596723424#3_0" index="0" disallow="tram rail_urban rail rail_electric rail_fast ship" speed="13.89" length="315.49" shape="214.56,195.21 214.57,198.16 214.58,201.00 214.61,225.73 214.63,235.32 214.77,316.60 214.83,350.79 214.84,353.74 214.85,364.44 214.87,375.09 214.87,377.23 214.97,429.84 215.08,497.70 215.09,500.32 215.10,510.70">
            <param key="origId" value="596723424"/>
        </lane>
    </edge>
    <edge id="-596723424#9" from="176071282" to="176080657" name="Pennsylvania Street" priority="3" type="highway.residential" shape="212.64,9.71 212.66,20.64 212.67,24.35 212.83,118.52 212.84,122.70 212.85,133.25 212.92,167.70 212.92,172.85 212.93,176.02 212.95,186.41">
        <lane id="-596723424#9_0" index="0" disallow="tram rail_urban rail rail_electric rail_fast ship" speed="13.89" length="167.90" shape="214.24,9.71 214.26,20.64 214.27,24.35 214.43,118.52 214.44,122.70 214.45,133.25 214.52,167.70 214.52,172.84 214.53,176.02 214.53,177.60">
            <param key="origId" value="596723424"/>
        </lane>
    </edge>
    <edge id="334259980#0" from="3413678358" to="176080655" name="Logan Street" priority="11" type="highway.secondary" spreadType="center" shape="107.90,0.00 107.89,10.17 107.88,20.84 107.83,57.47 107.74,121.91 107.68,160.25 107.66,176.38 107.64,186.70">
        <lane id="334259980#0_0" index="0" disallow="tram rail_urban rail rail_electric rail_fast ship" speed="27.78" length="177.89" shape="109.50,0.00 109.49,10.17 109.48,20.85 109.43,57.47 109.34,121.91 109.28,160.25 109.26,176.38 109.25,177.89">
            <param key="origId" value="334259980"/>
        </lane>
        <lane id="334259980#0_1" index="1" disallow="tram rail_urban rail rail_electric rail_fast ship" speed="27.78" length="177.89" shape="106.30,-0.00 106.29,10.16 106.28,20.84 106.23,57.47 106.14,121.90 106.08,160.25 106.06,176.38 106.05,177.88">
            <param key="origId" value="334259980"/>
        </lane>
    </edge>
    <edge id="334259980#6" from="176080655" to="4955447713" name="Logan Street" priority="11" type="highway.secondary" spreadType="center" shape="107.64,186.70 107.63,198.30 107.52,277.69 107.50,294.99 107.41,354.18 107.39,364.99">
        <lane id="334259980#6_0" index="0" disallow="tram rail_urban rail rail_electric rail_fast ship" speed="27.78" length="169.48" shape="109.23,195.51 109.23,198.30 109.12,277.69 109.10,294.99 109.01,354.18 108.99,364.99">
            <param key="origId" value="334259980"/>
        </lane>
        <lane id="334259980#6_1" index="1" disallow="tram rail_urban rail rail_electric rail_fast ship" speed="27.78" length="169.48" shape="106.03,195.51 106.03,198.30 105.92,277.68 105.90,294.99 105.81,354.17 105.79,364.98">
            <param key="origId" value="334259980"/>
        </lane>
    </edge>
    <edge id="488803528#0" from="176072807" to="176080655" name="East 17th Avenue" priority="11" type="highway.secondary" spreadType="center" shape="0.00,187.00 10.60,186.97 48.61,186.87 95.19,186.73 107.64,186.70">
        <lane id="488803528#0_0" index="0" disallow="tram rail_urban rail rail_electric rail_fast ship" speed="13.41" length="100.42" shape="-0.01,183.80 10.59,183.77 48.60,183.67 95.18,183.53 100.41,183.52">
            <param key="origId" value="488803528"/>
        </lane>
        <lane id="488803528#0_1" index="1" disallow="tram rail_urban rail rail_electric rail_fast ship" speed="13.41" length="100.42" shape="0.00,187.00 10.60,186.97 48.61,186.87 95.19,186.73 100.42,186.72">
            <param key="origId" value="488803528"/>
        </lane>
        <lane id="488803528#0_2" index="2" disallow="tram rail_urban rail rail_electric rail_fast ship" speed="13.41" length="100.42" shape="0.01,190.20 10.61,190.17 48.62,190.07 95.20,189.93 100.43,189.92">
            <param key="origId" value="488803528"/>
        </lane>
    </edge>
    <edge id="488803528#4" from="176080655" to="176080657" name="East 17th Avenue" priority="11" type="highway.secondary" spreadType="center" shape="107.64,186.70 115.70,186.68 160.47,186.55 202.88,186.44 212.95,186.41">
        <lane id="488803528#4_0" index="0" disallow="tram rail_urban rail rail_electric rail_fast ship" speed="13.41" length="90.88" shape="114.85,183.48 115.69,183.48 160.46,183.35 202.87,183.24 205.73,183.23">
            <param key="origId" value="488803528"/>
        </lane>
        <lane id="488803528#4_1" index="1" disallow="tram rail_urban rail rail_electric rail_fast ship" speed="13.41" length="90.88" shape="114.86,186.68 115.70,186.68 160.47,186.55 202.88,186.44 205.74,186.43">
            <param key="origId" value="488803528"/>
        </lane>
        <lane id="488803528#4_2" index="2" disallow="tram rail_urban rail rail_electric rail_fast ship" speed="13.41" length="90.88" shape="114.87,189.88 115.71,189.88 160.48,189.75 202.89,189.64 205.75,189.63">
            <param key="origId" value="488803528"/>
        </lane>
    </edge>
    <edge id="488803528#8" from="176080657" to="773327014" name="East 17th Avenue" priority="11" type="highway.secondary" spreadType="center" shape="212.95,186.41 221.56,186.39 265.25,186.27 306.96,186.15 315.64,186.13 322.50,186.11 331.52,186.09 339.24,186.07 364.25,186.00 406.70,185.88 415.58,185.86 422.05,185.84 459.82,185.73 497.68,185.63 506.51,185.61 516.10,185.58 524.88,185.56 561.50,185.46 573.53,185.43 621.47,185.29 635.18,185.26 649.39,185.23 744.99,184.96 754.86,184.93 763.50,184.91 810.72,184.78 861.98,184.65 872.45,184.62">
        <lane id="488803528#8_0" index="0" disallow="tram rail_urban rail rail_electric rail_fast ship" speed="13.41" length="652.30" shape="220.14,183.19 221.56,183.19 265.24,183.07 306.95,182.95 315.63,182.93 322.49,182.91 331.51,182.89 339.23,182.87 364.24,182.80 406.69,182.68 415.58,182.66 422.04,182.64 459.81,182.53 497.67,182.43 506.51,182.41 516.09,182.38 524.88,182.36 561.49,182.26 573.52,182.23 621.46,182.09 635.17,182.06 649.38,182.03 744.98,181.76 754.85,181.73 763.49,181.71 810.71,181.58 861.97,181.45 872.44,181.42">
            <param key="origId" value="488803528"/>
        </lane>
        <lane id="488803528#8_1" index="1" disallow="tram rail_urban rail rail_electric rail_fast ship" speed="13.41" length="652.30" shape="220.15,186.39 221.56,186.39 265.25,186.27 306.96,186.15 315.64,186.13 322.50,186.11 331.52,186.09 339.24,186.07 364.25,186.00 406.70,185.88 415.58,185.86 422.05,185.84 459.82,185.73 497.68,185.63 506.51,185.61 516.10,185.58 524.88,185.56 561.50,185.46 573.53,185.43 621.47,185.29 635.18,185.26 649.39,185.23 744.99,184.96 754.86,184.93 763.50,184.91 810.72,184.78 861.98,184.65 872.45,184.62">
            <param key="origId" value="488803528"/>
        </lane>
        <lane id="488803528#8_2" index="2" disallow="tram rail_urban rail rail_electric rail_fast ship" speed="13.41" length="652.30" shape="220.16,189.59 221.57,189.59 265.26,189.47 306.97,189.35 315.65,189.33 322.51,189.31 331.52,189.29 339.24,189.27 364.25,189.20 406.71,189.08 415.59,189.06 422.06,189.04 459.83,188.93 497.69,188.83 506.52,188.81 516.11,188.78 524.89,188.76 561.51,188.66 573.54,188.63 621.48,188.49 635.18,188.46 649.40,188.43 745.00,188.16 754.87,188.13 763.51,188.11 810.72,187.98 861.99,187.85 872.46,187.82">
            <param key="origId" value="488803528"/>
        </lane>
    </edge>
    <edge id="596723424#0" from="176086237" to="176080657" name="Pennsylvania Street" priority="3" type="highway.residential" shape="213.50,510.70 213.49,500.32 213.48,497.70 213.37,429.85 213.27,377.23 213.27,375.10 213.25,364.44 213.24,353.74 213.23,350.79 213.17,316.61 213.03,235.32 213.01,225.73 212.98,201.00 212.97,198.16 212.95,186.41">
        <lane id="596723424#0_0" index="0" disallow="tram rail_urban rail rail_electric rail_fast ship" speed="13.89" length="315.48" shape="211.90,510.70 211.89,500.32 211.88,497.70 211.77,429.85 211.67,377.23 211.67,375.10 211.65,364.44 211.64,353.75 211.63,350.79 211.57,316.61 211.43,235.32 211.41,225.73 211.38,201.01 211.37,198.17 211.36,195.22">
            <param key="origId" value="596723424"/>
        </lane>
    </edge>
    <edge id="596723424#4" from="176080657" to="176071282" name="Pennsylvania Street" priority="3" type="highway.residential" shape="212.95,186.41 212.93,176.02 212.92,172.85 212.92,167.70 212.85,133.25 212.84,122.70 212.83,118.52 212.67,24.35 212.66,20.64 212.64,9.71">
        <lane id="596723424#4_0" index="0" disallow="tram rail_urban rail rail_electric rail_fast ship" speed="13.89" length="167.90" shape="211.33,177.61 211.33,176.02 211.32,172.85 211.32,167.70 211.25,133.25 211.24,122.71 211.23,118.52 211.07,24.35 211.06,20.65 211.04,9.71">
            <param key="origId" value="596723424"/>
        </lane>
    </edge>

    <tlLogic id="176080655" type="actuated" programID="0" offset="0">
        <phase duration="39" state="GGGrrrr" minDur="13" maxDur="50"/>
        <phase duration="6"  state="yyyrrrr"/>
        <phase duration="39" state="rrrGGGG" minDur="5" maxDur="50"/>
        <phase duration="6"  state="rrryyyy"/>
    </tlLogic>

    <junction id="176071282" type="priority" x="212.64" y="9.71" incLanes="596723424#4_0" intLanes=":176071282_0_0" shape="212.64,9.71 209.44,9.72 212.64,9.71">
        <request index="0" response="0" foes="0" cont="0"/>
    </junction>
    <junction id="176072807" type="dead_end" x="0.00" y="187.00" incLanes="" intLanes="" shape="0.01,191.80 -0.01,182.20"/>
    <junction id="176080655" type="traffic_light" x="107.64" y="186.70" incLanes="334259980#0_0 334259980#0_1 488803528#0_0 488803528#0_1 488803528#0_2" intLanes=":176080655_0_0 :176080655_1_0 :176080655_1_1 :176080655_3_0 :176080655_3_1 :176080655_3_2 :176080655_6_0" shape="104.43,195.51 110.83,195.51 111.28,193.28 111.84,192.49 112.63,191.93 113.64,191.60 114.87,191.48 114.85,181.88 112.63,181.44 111.85,180.89 111.29,180.11 110.96,179.11 110.85,177.89 104.45,177.88 104.00,180.12 103.44,180.90 102.65,181.46 101.64,181.80 100.41,181.92 100.43,191.52 102.66,191.96 103.43,192.51 103.99,193.29 104.32,194.29">
        <request index="0" response="0000000" foes="0111000" cont="0"/>
        <request index="1" response="0000000" foes="1111000" cont="0"/>
        <request index="2" response="0000000" foes="1111000" cont="0"/>
        <request index="3" response="0000111" foes="0000111" cont="0"/>
        <request index="4" response="0000111" foes="0000111" cont="0"/>
        <request index="5" response="0000111" foes="0000111" cont="0"/>
        <request index="6" response="0000110" foes="0000110" cont="0"/>
    </junction>
    <junction id="176080657" type="priority" x="212.95" y="186.41" incLanes="596723424#0_0 -596723424#9_0 488803528#4_0 488803528#4_1 488803528#4_2" intLanes=":176080657_0_0 :176080657_1_0 :176080657_2_0 :176080657_3_0 :176080657_4_0 :176080657_5_0 :176080657_6_0 :176080657_7_0 :176080657_7_1 :176080657_7_2 :176080657_10_0" shape="209.76,195.22 216.16,195.21 216.60,192.98 217.16,192.20 217.94,191.64 218.94,191.31 220.16,191.19 220.14,181.59 217.92,181.15 217.14,180.60 216.58,179.82 216.25,178.82 216.13,177.60 209.73,177.61 209.29,179.84 208.73,180.62 207.95,181.18 206.95,181.52 205.73,181.63 205.76,191.23 207.98,191.67 208.76,192.22 209.31,193.00 209.65,194.00">
        <request index="0"  response="11111000000" foes="11111100000" cont="0"/>
        <request index="1"  response="11110010000" foes="11110010000" cont="0"/>
        <request index="2"  response="10000010000" foes="10000010000" cont="0"/>
        <request index="3"  response="01110000000" foes="01110000000" cont="0"/>
        <request index="4"  response="11110000000" foes="11110000110" cont="0"/>
        <request index="5"  response="00001000001" foes="00001000001" cont="0"/>
        <request index="6"  response="00000000000" foes="00000100001" cont="0"/>
        <request index="7"  response="00000000000" foes="00000011011" cont="0"/>
        <request index="8"  response="00000000000" foes="00000011011" cont="0"/>
        <request index="9"  response="00000000000" foes="00000011011" cont="0"/>
        <request index="10" response="00000000000" foes="00000010111" cont="0"/>
    </junction>
    <junction id="176086237" type="priority" x="213.50" y="510.70" incLanes="-596723424#3_0" intLanes=":176086237_0_0" shape="213.50,510.70 216.70,510.69 213.50,510.70">
        <request index="0" response="0" foes="0" cont="0"/>
    </junction>
    <junction id="3413678358" type="dead_end" x="107.90" y="0.00" incLanes="" intLanes="" shape="104.70,-0.00 111.10,0.00"/>
    <junction id="4955447713" type="dead_end" x="107.39" y="364.99" incLanes="334259980#6_0 334259980#6_1" intLanes="" shape="110.59,364.99 104.19,364.98"/>
    <junction id="773327014" type="dead_end" x="872.45" y="184.62" incLanes="488803528#8_0 488803528#8_1 488803528#8_2" intLanes="" shape="872.43,179.82 872.46,189.42"/>

    <connection from="-596723424#3" to="596723424#0" fromLane="0" toLane="0" via=":176086237_0_0" dir="t" state="M"/>
    <connection from="-596723424#9" to="488803528#8" fromLane="0" toLane="0" via=":176080657_3_0" dir="r" state="m"/>
    <connection from="-596723424#9" to="-596723424#3" fromLane="0" toLane="0" via=":176080657_4_0" dir="s" state="m"/>
    <connection from="-596723424#9" to="596723424#4" fromLane="0" toLane="0" via=":176080657_5_0" dir="t" state="m"/>
    <connection from="334259980#0" to="488803528#4" fromLane="0" toLane="0" via=":176080655_0_0" tl="176080655" linkIndex="0" dir="r" state="O"/>
    <connection from="334259980#0" to="334259980#6" fromLane="0" toLane="0" via=":176080655_1_0" tl="176080655" linkIndex="1" dir="s" state="O"/>
    <connection from="334259980#0" to="334259980#6" fromLane="1" toLane="1" via=":176080655_1_1" tl="176080655" linkIndex="2" dir="s" state="O"/>
    <connection from="488803528#0" to="488803528#4" fromLane="0" toLane="0" via=":176080655_3_0" tl="176080655" linkIndex="3" dir="s" state="o"/>
    <connection from="488803528#0" to="488803528#4" fromLane="1" toLane="1" via=":176080655_3_1" tl="176080655" linkIndex="4" dir="s" state="o"/>
    <connection from="488803528#0" to="488803528#4" fromLane="2" toLane="2" via=":176080655_3_2" tl="176080655" linkIndex="5" dir="s" state="o"/>
    <connection from="488803528#0" to="334259980#6" fromLane="2" toLane="1" via=":176080655_6_0" tl="176080655" linkIndex="6" dir="l" state="o"/>
    <connection from="488803528#4" to="596723424#4" fromLane="0" toLane="0" via=":176080657_6_0" dir="r" state="M"/>
    <connection from="488803528#4" to="488803528#8" fromLane="0" toLane="0" via=":176080657_7_0" dir="s" state="M"/>
    <connection from="488803528#4" to="488803528#8" fromLane="1" toLane="1" via=":176080657_7_1" dir="s" state="M"/>
    <connection from="488803528#4" to="488803528#8" fromLane="2" toLane="2" via=":176080657_7_2" dir="s" state="M"/>
    <connection from="488803528#4" to="-596723424#3" fromLane="2" toLane="0" via=":176080657_10_0" dir="l" state="M"/>
    <connection from="596723424#0" to="596723424#4" fromLane="0" toLane="0" via=":176080657_0_0" dir="s" state="m"/>
    <connection from="596723424#0" to="488803528#8" fromLane="0" toLane="2" via=":176080657_1_0" dir="l" state="m"/>
    <connection from="596723424#0" to="-596723424#3" fromLane="0" toLane="0" via=":176080657_2_0" dir="t" state="m"/>
    <connection from="596723424#4" to="-596723424#9" fromLane="0" toLane="0" via=":176071282_0_0" dir="t" state="M"/>

    <connection from=":176071282_0" to="-596723424#9" fromLane="0" toLane="0" dir="t" state="M"/>
    <connection from=":176080655_0" to="488803528#4" fromLane="0" toLane="0" dir="r" state="M"/>
    <connection from=":176080655_1" to="334259980#6" fromLane="0" toLane="0" dir="s" state="M"/>
    <connection from=":176080655_1" to="334259980#6" fromLane="1" toLane="1" dir="s" state="M"/>
    <connection from=":176080655_3" to="488803528#4" fromLane="0" toLane="0" dir="s" state="M"/>
    <connection from=":176080655_3" to="488803528#4" fromLane="1" toLane="1" dir="s" state="M"/>
    <connection from=":176080655_3" to="488803528#4" fromLane="2" toLane="2" dir="s" state="M"/>
    <connection from=":176080655_6" to="334259980#6" fromLane="0" toLane="1" dir="l" state="M"/>
    <connection from=":176080657_0" to="596723424#4" fromLane="0" toLane="0" dir="s" state="M"/>
    <connection from=":176080657_1" to="488803528#8" fromLane="0" toLane="2" dir="l" state="M"/>
    <connection from=":176080657_2" to="-596723424#3" fromLane="0" toLane="0" dir="t" state="M"/>
    <connection from=":176080657_3" to="488803528#8" fromLane="0" toLane="0" dir="r" state="M"/>
    <connection from=":176080657_4" to="-596723424#3" fromLane="0" toLane="0" dir="s" state="M"/>
    <connection from=":176080657_5" to="596723424#4" fromLane="0" toLane="0" dir="t" state="M"/>
    <connection from=":176080657_6" to="596723424#4" fromLane="0" toLane="0" dir="r" state="M"/>
    <connection from=":176080657_7" to="488803528#8" fromLane="0" toLane="0" dir="s" state="M"/>
    <connection from=":176080657_7" to="488803528#8" fromLane="1" toLane="1" dir="s" state="M"/>
    <connection from=":176080657_7" to="488803528#8" fromLane="2" toLane="2" dir="s" state="M"/>
    <connection from=":176080657_10" to="-596723424#3" fromLane="0" toLane="0" dir="l" state="M"/>
    <connection from=":176086237_0" to="596723424#0" fromLane="0" toLane="0" dir="t" state="M"/>

</net>
