<?xml version="1.0" encoding="UTF-8"?>

<!-- generated on 2022-10-03 14:15:06 by Eclipse SUMO netconvert Version 1.14.1
<configuration xmlns:xsi="http://www.w3.org/2001/XMLSchema-instance" xsi:noNamespaceSchemaLocation="http://sumo.dlr.de/xsd/netconvertConfiguration.xsd">

    <input>
        <type-files value="C:\Users\willi\Downloads\sumo-1.14.1\tools\..\data\typemap\osmNetconvert.typ.xml"/>
        <osm-files value="osm_bbox.osm.xml.gz"/>
    </input>

    <output>
        <output-file value="osm.net.xml"/>
        <output.street-names value="true"/>
        <output.original-names value="true"/>
    </output>

    <projection>
        <proj.utm value="true"/>
    </projection>

    <processing>
        <geometry.remove value="true"/>
        <roundabouts.guess value="true"/>
    </processing>

    <tls_building>
        <tls.discard-simple value="true"/>
        <tls.join value="true"/>
        <tls.guess-signals value="true"/>
        <tls.default-type value="actuated"/>
    </tls_building>

    <ramp_guessing>
        <ramps.guess value="true"/>
    </ramp_guessing>

    <edge_removal>
        <keep-edges.by-vclass value="passenger"/>
    </edge_removal>

    <junctions>
        <junctions.join value="true"/>
        <junctions.corner-detail value="5"/>
    </junctions>

    <report>
        <verbose value="true"/>
    </report>

</configuration>
-->

<net version="1.9" junctionCornerDetail="5" limitTurnSpeed="5.50" xmlns:xsi="http://www.w3.org/2001/XMLSchema-instance" xsi:noNamespaceSchemaLocation="http://sumo.dlr.de/xsd/net_file.xsd">

    <location netOffset="-502916.41,-4400090.69" convBoundary="0.00,0.00,620.47,2061.33" origBoundary="-104.965956,39.750718,-104.957263,39.769291" projParameter="+proj=utm +zone=13 +ellps=WGS84 +datum=WGS84 +units=m +no_defs"/>

    <type id="highway.bridleway" priority="1" numLanes="1" speed="2.78" allow="pedestrian" oneway="1" width="2.00"/>
    <type id="highway.bus_guideway" priority="1" numLanes="1" speed="27.78" allow="bus" oneway="1"/>
    <type id="highway.cycleway" priority="1" numLanes="1" speed="5.56" allow="bicycle" oneway="0" width="1.00"/>
    <type id="highway.footway" priority="1" numLanes="1" speed="2.78" allow="pedestrian" oneway="1" width="2.00"/>
    <type id="highway.ford" priority="1" numLanes="1" speed="2.78" allow="army" oneway="0"/>
    <type id="highway.living_street" priority="2" numLanes="1" speed="2.78" disallow="tram rail_urban rail rail_electric rail_fast ship" oneway="0"/>
    <type id="highway.motorway" priority="14" numLanes="2" speed="39.44" allow="private emergency authority army vip passenger hov taxi bus coach delivery truck trailer motorcycle evehicle custom1 custom2" oneway="1"/>
    <type id="highway.motorway_link" priority="9" numLanes="1" speed="22.22" allow="private emergency authority army vip passenger hov taxi bus coach delivery truck trailer motorcycle evehicle custom1 custom2" oneway="1"/>
    <type id="highway.path" priority="1" numLanes="1" speed="5.56" allow="pedestrian bicycle" oneway="0" width="2.00"/>
    <type id="highway.pedestrian" priority="1" numLanes="1" speed="2.78" allow="pedestrian" oneway="1" width="2.00"/>
    <type id="highway.primary" priority="12" numLanes="2" speed="27.78" disallow="tram rail_urban rail rail_electric rail_fast ship" oneway="0"/>
    <type id="highway.primary_link" priority="7" numLanes="1" speed="22.22" disallow="tram rail_urban rail rail_electric rail_fast ship" oneway="0"/>
    <type id="highway.raceway" priority="15" numLanes="2" speed="83.33" allow="vip" oneway="0"/>
    <type id="highway.residential" priority="3" numLanes="1" speed="13.89" disallow="tram rail_urban rail rail_electric rail_fast ship" oneway="0"/>
    <type id="highway.secondary" priority="11" numLanes="1" speed="27.78" disallow="tram rail_urban rail rail_electric rail_fast ship" oneway="0"/>
    <type id="highway.secondary_link" priority="6" numLanes="1" speed="22.22" disallow="tram rail_urban rail rail_electric rail_fast ship" oneway="0"/>
    <type id="highway.service" priority="1" numLanes="1" speed="5.56" allow="pedestrian delivery bicycle" oneway="0"/>
    <type id="highway.stairs" priority="1" numLanes="1" speed="1.39" allow="pedestrian" oneway="1" width="2.00"/>
    <type id="highway.step" priority="1" numLanes="1" speed="1.39" allow="pedestrian" oneway="1" width="2.00"/>
    <type id="highway.steps" priority="1" numLanes="1" speed="1.39" allow="pedestrian" oneway="1" width="2.00"/>
    <type id="highway.tertiary" priority="10" numLanes="1" speed="22.22" disallow="tram rail_urban rail rail_electric rail_fast ship" oneway="0"/>
    <type id="highway.tertiary_link" priority="5" numLanes="1" speed="22.22" disallow="tram rail_urban rail rail_electric rail_fast ship" oneway="0"/>
    <type id="highway.track" priority="1" numLanes="1" speed="5.56" allow="pedestrian motorcycle moped bicycle" oneway="0"/>
    <type id="highway.trunk" priority="13" numLanes="2" speed="27.78" disallow="pedestrian bicycle tram rail_urban rail rail_electric rail_fast ship" oneway="0"/>
    <type id="highway.trunk_link" priority="8" numLanes="1" speed="22.22" disallow="pedestrian bicycle tram rail_urban rail rail_electric rail_fast ship" oneway="0"/>
    <type id="highway.unclassified" priority="4" numLanes="1" speed="13.89" disallow="tram rail_urban rail rail_electric rail_fast ship" oneway="0"/>
    <type id="highway.unsurfaced" priority="1" numLanes="1" speed="8.33" disallow="tram rail_urban rail rail_electric rail_fast ship" oneway="0"/>
    <type id="railway.highspeed" priority="21" numLanes="1" speed="69.44" allow="rail_fast" oneway="1"/>
    <type id="railway.light_rail" priority="19" numLanes="1" speed="27.78" allow="rail_urban" oneway="1"/>
    <type id="railway.preserved" priority="16" numLanes="1" speed="27.78" allow="rail" oneway="1"/>
    <type id="railway.rail" priority="20" numLanes="1" speed="44.44" allow="rail" oneway="1"/>
    <type id="railway.subway" priority="18" numLanes="1" speed="27.78" allow="rail_urban" oneway="1"/>
    <type id="railway.tram" priority="17" numLanes="1" speed="13.89" allow="tram" oneway="1"/>

    <edge id=":176088011_0" function="internal">
        <lane id=":176088011_0_0" index="0" disallow="tram rail_urban rail rail_electric rail_fast ship" speed="3.65" length="4.67" shape="0.01,419.52 -1.19,418.73 -1.60,417.93 -1.21,417.13 -0.01,416.32"/>
    </edge>
    <edge id=":176088015_0" function="internal">
        <lane id=":176088015_0_0" index="0" disallow="tram rail_urban rail rail_electric rail_fast ship" speed="6.50" length="9.03" shape="423.14,423.68 422.79,421.23 421.73,419.48 419.98,418.44 417.53,418.11"/>
    </edge>
    <edge id=":176088015_1" function="internal">
        <lane id=":176088015_1_0" index="0" disallow="tram rail_urban rail rail_electric rail_fast ship" speed="13.89" length="14.42" shape="423.14,423.68 423.13,409.26"/>
    </edge>
    <edge id=":176088015_2" function="internal">
        <lane id=":176088015_2_0" index="0" disallow="tram rail_urban rail rail_electric rail_fast ship" speed="8.01" length="14.21" shape="423.14,423.68 423.69,419.82 425.34,417.06 428.09,415.40 431.94,414.84"/>
    </edge>
    <edge id=":176088015_3" function="internal">
        <lane id=":176088015_3_0" index="0" disallow="tram rail_urban rail rail_electric rail_fast ship" speed="3.65" length="4.67" shape="423.14,423.68 423.94,422.48 424.74,422.08 425.54,422.48 426.34,423.68"/>
    </edge>
    <edge id=":176088015_4" function="internal">
        <lane id=":176088015_4_0" index="0" disallow="tram rail_urban rail rail_electric rail_fast ship" speed="6.52" length="9.06" shape="431.95,418.04 429.49,418.40 427.74,419.46 426.69,421.22 426.34,423.68"/>
    </edge>
    <edge id=":176088015_5" function="internal">
        <lane id=":176088015_5_0" index="0" disallow="tram rail_urban rail rail_electric rail_fast ship" speed="13.41" length="14.42" shape="431.95,418.04 417.53,418.11"/>
    </edge>
    <edge id=":176088015_6" function="internal">
        <lane id=":176088015_6_0" index="0" disallow="tram rail_urban rail rail_electric rail_fast ship" speed="8.00" length="4.06" shape="431.95,418.04 428.09,417.50 427.95,417.42"/>
    </edge>
    <edge id=":176088015_7" function="internal">
        <lane id=":176088015_7_0" index="0" disallow="tram rail_urban rail rail_electric rail_fast ship" speed="3.65" length="1.44" shape="431.95,418.04 430.74,417.25"/>
    </edge>
    <edge id=":176088015_16" function="internal">
        <lane id=":176088015_16_0" index="0" disallow="tram rail_urban rail rail_electric rail_fast ship" speed="8.00" length="10.14" shape="427.95,417.42 425.34,415.86 423.68,413.11 423.13,409.26"/>
    </edge>
    <edge id=":176088015_17" function="internal">
        <lane id=":176088015_17_0" index="0" disallow="tram rail_urban rail rail_electric rail_fast ship" speed="3.65" length="3.23" shape="430.74,417.25 430.34,416.45 430.74,415.65 431.94,414.84"/>
    </edge>
    <edge id=":176088015_8" function="internal">
        <lane id=":176088015_8_0" index="0" disallow="tram rail_urban rail rail_electric rail_fast ship" speed="6.50" length="9.03" shape="426.33,409.25 426.68,411.70 427.73,413.45 429.49,414.50 431.94,414.84"/>
    </edge>
    <edge id=":176088015_9" function="internal">
        <lane id=":176088015_9_0" index="0" disallow="tram rail_urban rail rail_electric rail_fast ship" speed="13.89" length="14.42" shape="426.33,409.25 426.34,423.68"/>
    </edge>
    <edge id=":176088015_10" function="internal">
        <lane id=":176088015_10_0" index="0" disallow="tram rail_urban rail rail_electric rail_fast ship" speed="8.02" length="14.22" shape="426.33,409.25 425.78,413.11 424.13,415.87 421.38,417.53 417.53,418.11"/>
    </edge>
    <edge id=":176088015_11" function="internal">
        <lane id=":176088015_11_0" index="0" disallow="tram rail_urban rail rail_electric rail_fast ship" speed="3.65" length="4.67" shape="426.33,409.25 425.53,410.45 424.73,410.86 423.93,410.46 423.13,409.26"/>
    </edge>
    <edge id=":176088015_12" function="internal">
        <lane id=":176088015_12_0" index="0" disallow="tram rail_urban rail rail_electric rail_fast ship" speed="6.53" length="9.08" shape="417.51,414.91 419.97,414.54 421.73,413.48 422.78,411.72 423.13,409.26"/>
    </edge>
    <edge id=":176088015_13" function="internal">
        <lane id=":176088015_13_0" index="0" disallow="tram rail_urban rail rail_electric rail_fast ship" speed="13.41" length="14.43" shape="417.51,414.91 431.94,414.84"/>
    </edge>
    <edge id=":176088015_14" function="internal">
        <lane id=":176088015_14_0" index="0" disallow="tram rail_urban rail rail_electric rail_fast ship" speed="7.99" length="4.08" shape="417.51,414.91 421.37,415.43 421.53,415.53"/>
    </edge>
    <edge id=":176088015_15" function="internal">
        <lane id=":176088015_15_0" index="0" disallow="tram rail_urban rail rail_electric rail_fast ship" speed="3.65" length="1.44" shape="417.51,414.91 418.71,415.70"/>
    </edge>
    <edge id=":176088015_18" function="internal">
        <lane id=":176088015_18_0" index="0" disallow="tram rail_urban rail rail_electric rail_fast ship" speed="7.99" length="10.13" shape="421.53,415.53 424.13,417.07 425.79,419.82 426.34,423.68"/>
    </edge>
    <edge id=":176088015_19" function="internal">
        <lane id=":176088015_19_0" index="0" disallow="tram rail_urban rail rail_electric rail_fast ship" speed="3.65" length="3.23" shape="418.71,415.70 419.12,416.50 418.72,417.30 417.53,418.11"/>
    </edge>
    <edge id=":176088017_0" function="internal">
        <lane id=":176088017_0_0" index="0" disallow="tram rail_urban rail rail_electric rail_fast ship" speed="6.49" length="9.03" shape="525.06,423.19 524.71,420.73 523.65,418.99 521.90,417.95 519.45,417.62"/>
    </edge>
    <edge id=":176088017_1" function="internal">
        <lane id=":176088017_1_0" index="0" disallow="tram rail_urban rail rail_electric rail_fast ship" speed="13.41" length="14.42" shape="525.06,423.19 525.03,408.77"/>
        <lane id=":176088017_1_1" index="1" disallow="tram rail_urban rail rail_electric rail_fast ship" speed="13.41" length="14.42" shape="528.26,423.18 528.23,408.76"/>
    </edge>
    <edge id=":176088017_3" function="internal">
        <lane id=":176088017_3_0" index="0" disallow="tram rail_urban rail rail_electric rail_fast ship" speed="3.65" length="1.44" shape="528.26,423.18 529.06,421.98"/>
    </edge>
    <edge id=":176088017_16" function="internal">
        <lane id=":176088017_16_0" index="0" disallow="tram rail_urban rail rail_electric rail_fast ship" speed="3.65" length="3.23" shape="529.06,421.98 529.86,421.58 530.66,421.98 531.46,423.18"/>
    </edge>
    <edge id=":176088017_4" function="internal">
        <lane id=":176088017_4_0" index="0" disallow="tram rail_urban rail rail_electric rail_fast ship" speed="6.52" length="9.06" shape="540.25,417.52 537.81,417.88 536.06,418.94 535.01,420.71 534.66,423.17"/>
    </edge>
    <edge id=":176088017_5" function="internal">
        <lane id=":176088017_5_0" index="0" disallow="tram rail_urban rail rail_electric rail_fast ship" speed="14.53" length="20.81" shape="540.25,417.52 519.45,417.62"/>
    </edge>
    <edge id=":176088017_6" function="internal">
        <lane id=":176088017_6_0" index="0" disallow="tram rail_urban rail rail_electric rail_fast ship" speed="8.67" length="5.53" shape="540.25,417.52 535.00,416.99 534.77,416.89"/>
    </edge>
    <edge id=":176088017_7" function="internal">
        <lane id=":176088017_7_0" index="0" disallow="tram rail_urban rail rail_electric rail_fast ship" speed="3.65" length="1.44" shape="540.25,417.52 539.05,416.73"/>
    </edge>
    <edge id=":176088017_17" function="internal">
        <lane id=":176088017_17_0" index="0" disallow="tram rail_urban rail rail_electric rail_fast ship" speed="8.67" length="11.32" shape="534.77,416.89 531.25,415.35 528.99,412.60 528.23,408.76"/>
    </edge>
    <edge id=":176088017_18" function="internal">
        <lane id=":176088017_18_0" index="0" disallow="tram rail_urban rail rail_electric rail_fast ship" speed="3.65" length="3.23" shape="539.05,416.73 538.65,415.93 539.05,415.13 540.25,414.32"/>
    </edge>
    <edge id=":176088017_8" function="internal">
        <lane id=":176088017_8_0" index="0" disallow="tram rail_urban rail rail_electric rail_fast ship" speed="6.51" length="9.03" shape="534.63,408.74 534.99,411.19 536.04,412.93 537.80,413.98 540.25,414.32"/>
    </edge>
    <edge id=":176088017_9" function="internal">
        <lane id=":176088017_9_0" index="0" disallow="tram rail_urban rail rail_electric rail_fast ship" speed="13.41" length="14.43" shape="534.63,408.74 534.66,423.17"/>
        <lane id=":176088017_9_1" index="1" disallow="tram rail_urban rail rail_electric rail_fast ship" speed="13.41" length="14.43" shape="531.43,408.75 531.46,423.18"/>
    </edge>
    <edge id=":176088017_11" function="internal">
        <lane id=":176088017_11_0" index="0" disallow="tram rail_urban rail rail_electric rail_fast ship" speed="3.65" length="1.44" shape="531.43,408.75 530.63,409.95"/>
    </edge>
    <edge id=":176088017_19" function="internal">
        <lane id=":176088017_19_0" index="0" disallow="tram rail_urban rail rail_electric rail_fast ship" speed="3.65" length="3.23" shape="530.63,409.95 529.84,410.35 529.03,409.95 528.23,408.76"/>
    </edge>
    <edge id=":176088017_12" function="internal">
        <lane id=":176088017_12_0" index="0" disallow="tram rail_urban rail rail_electric rail_fast ship" speed="6.53" length="9.07" shape="519.42,414.42 521.88,414.05 523.64,412.98 524.69,411.22 525.03,408.77"/>
    </edge>
    <edge id=":176088017_13" function="internal">
        <lane id=":176088017_13_0" index="0" disallow="tram rail_urban rail rail_electric rail_fast ship" speed="14.53" length="20.83" shape="519.42,414.42 540.25,414.32"/>
    </edge>
    <edge id=":176088017_14" function="internal">
        <lane id=":176088017_14_0" index="0" disallow="tram rail_urban rail rail_electric rail_fast ship" speed="8.66" length="5.60" shape="519.42,414.42 524.69,414.93 524.97,415.05"/>
    </edge>
    <edge id=":176088017_15" function="internal">
        <lane id=":176088017_15_0" index="0" disallow="tram rail_urban rail rail_electric rail_fast ship" speed="3.65" length="1.44" shape="519.42,414.42 520.63,415.21"/>
    </edge>
    <edge id=":176088017_20" function="internal">
        <lane id=":176088017_20_0" index="0" disallow="tram rail_urban rail rail_electric rail_fast ship" speed="8.66" length="11.29" shape="524.97,415.05 528.45,416.56 530.71,419.31 531.46,423.18"/>
    </edge>
    <edge id=":176088017_21" function="internal">
        <lane id=":176088017_21_0" index="0" disallow="tram rail_urban rail rail_electric rail_fast ship" speed="3.65" length="3.23" shape="520.63,415.21 521.04,416.00 520.64,416.81 519.45,417.62"/>
    </edge>
    <edge id=":176091857_0" function="internal">
        <lane id=":176091857_0_0" index="0" disallow="tram rail_urban rail rail_electric rail_fast ship" speed="3.65" length="4.67" shape="531.54,694.96 530.74,696.16 529.94,696.56 529.14,696.16 528.34,694.96"/>
    </edge>
    <edge id=":176102963_0" function="internal">
        <lane id=":176102963_0_0" index="0" disallow="tram rail_urban rail rail_electric rail_fast ship" speed="3.65" length="4.67" shape="422.87,0.00 423.67,-1.20 424.47,-1.60 425.27,-1.20 426.07,-0.00"/>
    </edge>
    <edge id=":176102973_0" function="internal">
        <lane id=":176102973_0_0" index="0" disallow="tram rail_urban rail rail_electric rail_fast ship" speed="3.65" length="4.67" shape="427.40,2061.32 426.60,2062.53 425.80,2062.93 425.00,2062.53 424.20,2061.33"/>
    </edge>
    <edge id=":2823784462_0" function="internal">
        <lane id=":2823784462_0_0" index="0" disallow="tram rail_urban rail rail_electric rail_fast ship" speed="3.65" length="4.67" shape="620.46,414.04 621.66,414.83 622.07,415.63 621.68,416.43 620.48,417.24"/>
    </edge>
    <edge id=":5930291671_0" function="internal">
        <lane id=":5930291671_0_0" index="0" disallow="tram rail_urban rail rail_electric rail_fast ship" speed="3.65" length="4.67" shape="529.34,63.83 530.14,62.64 530.94,62.24 531.74,62.65 532.54,63.85"/>
    </edge>

    <edge id="-16986607#0" from="176088015" to="176102973" name="Gaylord Street" priority="3" type="highway.residential" shape="424.73,416.46 424.83,555.78 424.92,695.31 425.01,833.58 425.09,972.43 425.10,983.08 425.19,1112.63 425.28,1250.89 425.36,1390.58 425.53,1529.16 425.54,1668.72 425.63,1802.02 425.63,1810.64 425.71,1927.58 425.72,1935.15 425.80,2061.33">
        <lane id="-16986607#0_0" index="0" disallow="tram rail_urban rail rail_electric rail_fast ship" speed="13.89" length="1637.65" shape="426.34,423.68 426.43,555.78 426.52,695.31 426.61,833.58 426.69,972.43 426.70,983.08 426.79,1112.63 426.88,1250.88 426.96,1390.58 427.13,1529.16 427.14,1668.72 427.23,1802.02 427.23,1810.64 427.31,1927.58 427.32,1935.14 427.40,2061.32">
            <param key="origId" value="16986607"/>
        </lane>
    </edge>
    <edge id="-16986607#1" from="176102963" to="176088015" name="Gaylord Street" priority="3" type="highway.residential" shape="424.47,0.00 424.47,10.07 424.50,48.79 424.52,77.26 424.55,129.12 424.56,138.73 424.57,149.26 424.65,277.46 424.73,416.46">
        <lane id="-16986607#1_0" index="0" disallow="tram rail_urban rail rail_electric rail_fast ship" speed="13.89" length="409.26" shape="426.07,-0.00 426.07,10.07 426.10,48.79 426.12,77.26 426.15,129.12 426.16,138.73 426.17,149.26 426.25,277.46 426.33,409.25">
            <param key="origId" value="16986607"/>
        </lane>
    </edge>
    <edge id="-239249844#2" from="2823784462" to="176088017" name="East 26th Avenue" priority="10" type="highway.tertiary" shape="620.47,415.64 600.22,415.79 578.16,415.83 540.05,415.92 529.85,415.94">
        <lane id="-239249844#2_0" index="0" disallow="tram rail_urban rail rail_electric rail_fast ship" speed="15.65" length="80.23" shape="620.48,417.24 600.23,417.39 578.16,417.43 540.25,417.52">
            <param key="origId" value="239249844"/>
        </lane>
    </edge>
    <edge id="-584410922#0" from="176088015" to="176088011" name="East 26th Avenue" priority="10" type="highway.tertiary" shape="424.73,416.46 371.95,416.78 318.84,416.26 266.38,416.83 222.00,417.01 213.55,417.04 204.66,417.08 157.31,417.30 141.22,417.33 112.61,417.38 105.56,417.38 98.32,417.40 52.86,417.55 10.00,417.85 0.00,417.92">
        <lane id="-584410922#0_0" index="0" disallow="tram rail_urban rail rail_electric rail_fast ship" speed="13.41" length="417.52" shape="417.53,418.11 371.94,418.38 318.84,417.86 266.40,418.43 222.01,418.61 213.55,418.64 204.67,418.68 157.32,418.90 141.22,418.93 112.62,418.98 105.57,418.98 98.32,419.00 52.87,419.15 10.01,419.45 0.01,419.52">
            <param key="origId" value="584410922"/>
        </lane>
    </edge>
    <edge id="-584410922#3" from="176088017" to="176088015" name="East 26th Avenue" priority="10" type="highway.tertiary" shape="529.85,415.94 519.37,416.02 476.94,416.32 424.73,416.46">
        <lane id="-584410922#3_0" index="0" disallow="tram rail_urban rail rail_electric rail_fast ship" speed="13.41" length="87.50" shape="519.45,417.62 476.95,417.92 431.95,418.04">
            <param key="origId" value="584410922"/>
        </lane>
    </edge>
    <edge id="-584816301#1" from="5930291671" to="176088017" name="York Street" priority="11" type="highway.secondary" shape="530.94,63.84 530.59,138.75 529.68,277.17 529.60,285.05 529.82,406.62 529.85,415.94">
        <lane id="-584816301#1_0" index="0" disallow="tram rail_urban rail rail_electric rail_fast ship" speed="13.41" length="344.89" shape="535.74,63.86 535.39,138.77 534.48,277.20 534.40,285.07 534.62,406.61 534.63,408.74">
            <param key="origId" value="584816301"/>
        </lane>
        <lane id="-584816301#1_1" index="1" disallow="tram rail_urban rail rail_electric rail_fast ship" speed="13.41" length="344.89" shape="532.54,63.85 532.19,138.75 531.28,277.18 531.20,285.05 531.42,406.62 531.43,408.75">
            <param key="origId" value="584816301"/>
        </lane>
    </edge>
    <edge id="-596718633#1" from="176088017" to="176091857" name="York Street" priority="11" type="highway.secondary" shape="529.85,415.94 529.87,427.05 530.02,555.83 529.94,694.96">
        <lane id="-596718633#1_0" index="0" disallow="tram rail_urban rail rail_electric rail_fast ship" speed="13.41" length="271.79" shape="534.66,423.17 534.67,427.05 534.82,555.83 534.74,694.96">
            <param key="origId" value="596718633"/>
        </lane>
        <lane id="-596718633#1_1" index="1" disallow="tram rail_urban rail rail_electric rail_fast ship" speed="13.41" length="271.79" shape="531.46,423.18 531.47,427.05 531.62,555.83 531.54,694.96">
            <param key="origId" value="596718633"/>
        </lane>
    </edge>
    <edge id="16986607#0" from="176102973" to="176088015" name="Gaylord Street" priority="3" type="highway.residential" shape="425.80,2061.33 425.72,1935.15 425.71,1927.58 425.63,1810.64 425.63,1802.02 425.54,1668.72 425.53,1529.16 425.36,1390.58 425.28,1250.89 425.19,1112.63 425.10,983.08 425.09,972.43 425.01,833.58 424.92,695.31 424.83,555.78 424.73,416.46">
        <lane id="16986607#0_0" index="0" disallow="tram rail_urban rail rail_electric rail_fast ship" speed="13.89" length="1637.65" shape="424.20,2061.33 424.12,1935.15 424.11,1927.58 424.03,1810.64 424.03,1802.02 423.94,1668.73 423.93,1529.16 423.76,1390.58 423.68,1250.89 423.59,1112.63 423.50,983.08 423.49,972.43 423.41,833.58 423.32,695.31 423.23,555.78 423.14,423.68">
            <param key="origId" value="16986607"/>
        </lane>
    </edge>
    <edge id="16986607#1" from="176088015" to="176102963" name="Gaylord Street" priority="3" type="highway.residential" shape="424.73,416.46 424.65,277.46 424.57,149.26 424.56,138.73 424.55,129.12 424.52,77.26 424.50,48.79 424.47,10.07 424.47,0.00">
        <lane id="16986607#1_0" index="0" disallow="tram rail_urban rail rail_electric rail_fast ship" speed="13.89" length="409.26" shape="423.13,409.26 423.05,277.46 422.97,149.27 422.96,138.73 422.95,129.12 422.92,77.26 422.90,48.79 422.87,10.07 422.87,0.00">
            <param key="origId" value="16986607"/>
        </lane>
    </edge>
    <edge id="239249844#0" from="176088017" to="2823784462" name="East 26th Avenue" priority="10" type="highway.tertiary" shape="529.85,415.94 540.05,415.92 578.16,415.83 600.22,415.79 620.47,415.64">
        <lane id="239249844#0_0" index="0" disallow="tram rail_urban rail rail_electric rail_fast ship" speed="15.65" length="80.21" shape="540.25,414.32 578.16,414.23 600.21,414.19 620.46,414.04">
            <param key="origId" value="239249844"/>
        </lane>
    </edge>
    <edge id="584410922#0" from="176088011" to="176088015" name="East 26th Avenue" priority="10" type="highway.tertiary" shape="0.00,417.92 10.00,417.85 52.86,417.55 98.32,417.40 105.56,417.38 112.61,417.38 141.22,417.33 157.31,417.30 204.66,417.08 213.55,417.04 222.00,417.01 266.38,416.83 318.84,416.26 371.95,416.78 424.73,416.46">
        <lane id="584410922#0_0" index="0" disallow="tram rail_urban rail rail_electric rail_fast ship" speed="13.41" length="417.53" shape="-0.01,416.32 9.99,416.25 52.86,415.95 98.31,415.80 105.56,415.78 112.61,415.78 141.22,415.73 157.31,415.70 204.65,415.48 213.54,415.44 221.99,415.41 266.37,415.23 318.84,414.66 371.95,415.18 417.51,414.91">
            <param key="origId" value="584410922"/>
        </lane>
    </edge>
    <edge id="584410922#1" from="176088015" to="176088017" name="East 26th Avenue" priority="10" type="highway.tertiary" shape="424.73,416.46 476.94,416.32 519.37,416.02 529.85,415.94">
        <lane id="584410922#1_0" index="0" disallow="tram rail_urban rail rail_electric rail_fast ship" speed="13.41" length="87.49" shape="431.94,414.84 476.93,414.72 519.42,414.42">
            <param key="origId" value="584410922"/>
        </lane>
    </edge>
    <edge id="584816301#0" from="176088017" to="5930291671" name="York Street" priority="11" type="highway.secondary" shape="529.85,415.94 529.82,406.62 529.60,285.05 529.68,277.17 530.59,138.75 530.94,63.84">
        <lane id="584816301#0_0" index="0" disallow="tram rail_urban rail rail_electric rail_fast ship" speed="13.41" length="344.94" shape="525.03,408.77 525.02,406.63 524.80,285.02 524.89,277.12 525.79,138.72 526.14,63.82">
            <param key="origId" value="584816301"/>
        </lane>
        <lane id="584816301#0_1" index="1" disallow="tram rail_urban rail rail_electric rail_fast ship" speed="13.41" length="344.94" shape="528.23,408.76 528.22,406.62 528.00,285.04 528.08,277.15 528.99,138.74 529.34,63.83">
            <param key="origId" value="584816301"/>
        </lane>
    </edge>
    <edge id="596718633#0" from="176091857" to="176088017" name="York Street" priority="11" type="highway.secondary" shape="529.94,694.96 530.02,555.83 529.87,427.05 529.85,415.94">
        <lane id="596718633#0_0" index="0" disallow="tram rail_urban rail rail_electric rail_fast ship" speed="13.41" length="271.77" shape="525.14,694.96 525.22,555.83 525.07,427.06 525.06,423.19">
            <param key="origId" value="596718633"/>
        </lane>
        <lane id="596718633#0_1" index="1" disallow="tram rail_urban rail rail_electric rail_fast ship" speed="13.41" length="271.77" shape="528.34,694.96 528.42,555.83 528.27,427.05 528.26,423.18">
            <param key="origId" value="596718633"/>
        </lane>
    </edge>

    <tlLogic id="176088017" type="actuated" programID="0" offset="0">
        <phase duration="42" state="GGGgrrrrGGGgrrrr" minDur="5" maxDur="50"/>
        <phase duration="3"  state="yyyyrrrryyyyrrrr"/>
        <phase duration="42" state="rrrrGGggrrrrGGgg" minDur="6" maxDur="50"/>
        <phase duration="3"  state="rrrryyyyrrrryyyy"/>
    </tlLogic>

    <junction id="176088011" type="priority" x="0.00" y="417.92" incLanes="-584410922#0_0" intLanes=":176088011_0_0" shape="0.00,417.92 0.02,421.12 0.00,417.92">
        <request index="0" response="0" foes="0" cont="0"/>
    </junction>
    <junction id="176088015" type="priority" x="424.73" y="416.46" incLanes="16986607#0_0 -584410922#3_0 -16986607#1_0 584410922#0_0" intLanes=":176088015_0_0 :176088015_1_0 :176088015_2_0 :176088015_3_0 :176088015_4_0 :176088015_5_0 :176088015_16_0 :176088015_17_0 :176088015_8_0 :176088015_9_0 :176088015_10_0 :176088015_11_0 :176088015_12_0 :176088015_13_0 :176088015_18_0 :176088015_19_0" shape="421.54,423.68 427.94,423.68 428.38,421.44 428.94,420.66 429.72,420.10 430.72,419.76 431.95,419.64 431.93,413.24 429.71,412.80 428.93,412.25 428.38,411.47 428.04,410.48 427.93,409.25 421.53,409.26 421.08,411.50 420.52,412.28 419.74,412.85 418.73,413.19 417.50,413.31 417.54,419.71 419.76,420.14 420.54,420.69 421.09,421.46 421.43,422.46">
        <request index="0"  response="0000000000100000" foes="1000010000100000" cont="0"/>
        <request index="1"  response="0111000001100000" foes="0111110001100000" cont="0"/>
        <request index="2"  response="0110001101100000" foes="0110011111100000" cont="0"/>
        <request index="3"  response="0100001000010000" foes="0100001000010000" cont="0"/>
        <request index="4"  response="0000000000000000" foes="0100001000001000" cont="0"/>
        <request index="5"  response="0000000000000000" foes="1100011000000111" cont="0"/>
        <request index="6"  response="0111000000000000" foes="0111111000000110" cont="1"/>
        <request index="7"  response="0010000100000100" foes="0010000100000100" cont="1"/>
        <request index="8"  response="0010000000000000" foes="0010000010000100" cont="0"/>
        <request index="9"  response="0110000001110000" foes="0110000001111100" cont="0"/>
        <request index="10" response="0110000001100111" foes="1110000001100111" cont="0"/>
        <request index="11" response="0001000001000010" foes="0001000001000010" cont="0"/>